LTspice 24.1.10 for Windows
Circuit: C:\Projects\Uni\Electronic Digital\Draft5.net
Start Time: Fri Dec 26 12:10:47 2025
solver = Normal
Maximum thread count: 20
tnom = 27
temp = 27
method = trap
Direct Newton iteration for .op point succeeded.
Total elapsed time: 0.094 seconds.

Files loaded:
C:\Projects\Uni\Electronic Digital\Draft5.net
C:\Users\erfan\AppData\Local\LTspice\lib\cmp\standard.bjt

