LTspice 24.1.10 for Windows
Circuit: C:\Projects\Uni\Electronic Digital\Draft4.net
Start Time: Wed Dec 24 14:56:30 2025
solver = Normal
Maximum thread count: 20
tnom = 27
temp = 27
method = trap
Direct Newton iteration for .op point succeeded.
Total elapsed time: 0.079 seconds.

Files loaded:
C:\Projects\Uni\Electronic Digital\Draft4.net
C:\Users\erfan\AppData\Local\LTspice\lib\cmp\standard.bjt

